Version 4
SHEET 1 1464 680
TEXT -1288 -3384 Left 2 !.model 2SA1943O PNP(Is=5.5p Bf=113 Ikf=50 Nk=1.2 Ise=10p Ne=1.5 Br=5 Vaf=150 Rc=80m Re=2m Rb=800m Cjc=1.3n Vjc=0.7 Mjc=0.48 Cje=5n Vje=0.74 Mje=0.358 Tr=50n Tf=5n Vceo=230 Icrating=15 mfg=TOSHIBA)
TEXT -1288 -3352 Left 2 !.model 2SC5200O NPN(Is=5.5p Bf=113 Ikf=100 Nk=1.2 Ise=10p Ne=1.5 Br=2 Vaf=100 Rc=30m Re=1m Rb=300m Cjc=640p Vjc=0.5 Mjc=0.42 Cje=6n Vje=0.6 Mje=0.34 Tr=50n Tf=5n Vceo=230 Icrating=15 mfg=TOSHIBA)
TEXT -1288 -3416 Left 2 !.model REL SW(Vt=2.0)
TEXT -1288 -3320 Left 2 !.model 2SA1837 PNP(Is=400f Bf=179 Ikf=3 Nk=0.8 Br=2 Vaf=100 Rc=1 Re=30m Rb=10 Cjc=110p Vjc=0.6 Mjc=0.48 Cje=370p Vje=0.82 Mje=0.39 Tr=30n Tf=3n Vceo=230 Icrating=1 mfg=TOSHIBA)
TEXT -1288 -3288 Left 2 !.model 2SC4793 NPN(Is=400f Bf=179 Ikf=3 Nk=0.8 Br=2 Vaf=100 Rc=300m Re=10m Rb=3 Cjc=53p Vjc=0.5 Mjc=0.4 Cje=580p Vje=0.75 Mje=0.39 Tr=20n Tf=2n Vceo=230 Icrating=1 mfg=TOSHIBA)
