**$ENCRYPTED_LIB
**$INTERFACE
* LME49810
*****************************************************************************
* (C) Copyright 2012 Texas Instruments Incorporated. All rights reserved.
*****************************************************************************
** This model is designed as an aid for customers of Texas Instruments.
** TI and its licensors and suppliers make no warranties, either expressed
** or implied, with respect to this model, including the warranties of
** merchantability or fitness for a particular purpose.  The model is
** provided solely on an "as is" basis.  The entire risk as to its quality
** and performance is with the customer.
*****************************************************************************
*
** Released by: WEBENCH(R) Design Center, Texas Instruments Inc.
* Part: LME49810
* Date: 8/28/2012
* Model Type: All In One
* Simulator: Pspice
* Simulator Version: Pspice 16.2.0.p001
* EVM Order Number: N/A
* EVM Users Guide: N/A
* Datasheet: SNAS391B
*
* Model Version: 1.0
*
*****************************************************************************
*
* Updates:
*
* Version 1.0 : Release to Web
*
*****************************************************************************
* Notes: To MUTE the model, float the MUTE pin or connect it to *GND. The Bias and Comp pins are terminated inside the model. *The following parameters are embedded in the model:
*ICC, IEE, Open loop gain, GBW, Swing, output current limit, *noise, Mute current, SR, offset voltage, input bias current, 
* PSRR.
*****************************************************************************
.SUBCKT LME49810 VSS Osense Clamp_Flag VDD VINN VINP Comp GND Source MUTE
+ BiasM BiasP Sink
$CDNENCSTART
eee8c5c7a2bc4b01f045f303678664e7916da0bae22e8cb0bba041dd67c69ce448ea70148a9ac1670c8926c1ac5057c8ccfcd77bf87ca9dccc6faeb12a62fbf9
d1eef0ba38bb4038a7979f7d3b747ec7ca19bf18390419ddb7c7436d2d59efbee5f09f0e4fb4162074a00720ff12da29b3eba005b8bdd99622383c7dea5a868f
*R4          0 MUTE 10K

6f4f6f21b39202b417b9607863d130b5c2596a7ebd8ab9e1eadb23cce6983c33f2ed0020d9df5244581f16e76b5f03d05e91d728286e8264d38aff4e12555a5d
a978e94c36773adbe59dcc7a375ba54fc4c881890f984edb9deed93cbb23ebd58f25d5a6ab6db26b536c144e401d8b4041e8d216142c0cdc2c4bffb105aafcfa

e175e46269ccd7329bf3d8b397fead6e1cfc5911028bbea06f129c6411b235e86b926bd1dc062fe4595e094d1d594b56189a554794a05866664c0052273856b2

6bfb5d61ac69ca8f8d95be0fc5d687203e644f8fdbee77b4a85fa5be6981d9d0ca19bf18390419dd16ae56bdb23ee5fc0d44c66a710097f3cc6faeb12a62fbf9
6cf7029c1721927f039e4e9200fd4c549a41fd50ac958170595e094d1d594b56189a554794a058667bff7ea20f2dd130c63bd05644491d6f35d2d17c874f1bca

c36f86d7f8415e317b4ba900e28b1f06876a1f5ba98f9e8d595e094d1d594b56189a554794a058667bff7ea20f2dd130c63bd05644491d6f35d2d17c874f1bca
8548215614db6af3be44be8c7e702cc6afa336175f53153756a85da577288247bdf24348ee7055d696b7d19bf60bc0e041f49883103604f551d354b0e188c18f
a0e938c77ef859157b4ba900e28b1f0603f3b9dce5468f4f74a00720ff12da29b3eba005b8bdd996f9102e232c2464059462a67aac781a847c54fe1abf6b0bc5
f6ac43e363a11095be44be8c7e702cc6d4b6026e702b15ea56a85da577288247bdf24348ee7055d696b7d19bf60bc0e041f49883103604f551d354b0e188c18f
$CDNENCFINISH
.ENDS  LME49810

*****************************************************************************
********************************************************************************************************************************

.SUBCKT LM1876_0_0  VIP VIN VOUT VDD VSS STBY MUTE
$CDNENCSTART
eee8c5c7a2bc4b01f045f303678664e7916da0bae22e8cb0bba041dd67c69ce448ea70148a9ac1670c8926c1ac5057c8ccfcd77bf87ca9dccc6faeb12a62fbf9
8c89c81613b46d98a364b36614e0f9016b9245d59c7cac7b595e094d1d594b56189a554794a058667bff7ea20f2dd130c63bd05644491d6f35d2d17c874f1bca
d329c5e27a736f5d8d95be0fc5d68720f7df5566cd38f18f56a85da577288247bdf24348ee7055d696b7d19bf60bc0e041f49883103604f551d354b0e188c18f
12d2018c778dc7a57c453ae544dee7ce14819abcb4026a23595e094d1d594b56189a554794a058667bff7ea20f2dd130c63bd05644491d6f35d2d17c874f1bca
747b88f5cc7497017e8f4f1511d5622f8a22d3b83139c1446d6ac86c63098ace7152bf74ef2b9861a68037c687de621e436c8e032b4e0770bff21254c1b2ccc9
a037ae9929b61b823371ed35b0720c95b30e64a9cdca97a7c0bf0bb04e9dd26b0d60a79671e42aa2d0b8bbcc7b8fc93f74a00720ff12da29076f797212c9740f
a978e94c36773adb18f5d3dd47b853298e5b3196a6c66261362c83d5da9eea391b80254f46925a19e4298e279057f35f437bbe5ced946ec588f63d4998dc262a
778b7cb42216fcbced857e222a29377bd4153d62e02be2dc738efccb6d9107455171293ffbc16a97138dd48a6f09c48aed3c3053e472d8b3740e5a52b6c24c72
6f4f6f21b39202b4c556c8b2ef71566f6dfee3f2638fc738321940d995af562adc78019e6b0a9af3595e094d1d594b56189a554794a05866664c0052273856b2
45f4bb15bdf6921ea7979f7d3b747ec77e11a7017db7ac404726691d62dc479c46c907e75ffa80f20df82c91b3ae77534dde9b0ff39e44d3b3472f4dab7faf6d
0ab3eab7d19021d2c556c8b2ef71566f99a1be798bcb17da9465323024cc254b0864502bb9008b6c74a00720ff12da29b3eba005b8bdd99622383c7dea5a868f
e476dd2dbeab07af47a705d8a9d44b999e700721f5e1ef1062ba89f22c9a611f45cb8f980e9777217de780a21b74a755656cf35b400b9bbca6612be9b93751ac
a978e94c36773adb5a00425ed4a78210bff6edff165a9e4a124b38e00312741fcfdcac3cc22d1d1bed00a751cfc352775f4541dcb3750fc32c4bffb105aafcfa

*V_TF   14 21 0
14a139e676603e1ded6857e69e07b6ae87301e0655b18fc41fe41e10524411e9656cf35b400b9bbc7ec73e68d965960b3eca8fd6b4c214385cd8ee5860898139
a978e94c36773adb6217e712975dc1f18d636b3cace09570b20350afe50c25aea1134385522a5af709e3cda3fb4d8d4b297385fc35ad36a49386a301df4db101
e839dba6172b7e3bc17922737af769787d63ed6cbcd5eb87ed53b4ce5c20ee27230b36913815402d28bab3311d4ff44f9da73ba7731f76c861650dc6e374bd8f
547409947a228ca2180e8bdbeb922932ed857e222a29377bd4153d62e02be2dc738efccb6d9107455171293ffbc16a97138dd48a6f09c48ab665c0a5a17590be
6bfb5d61ac69ca8f8d95be0fc5d68720b72a1e70f1410f29568ce63f9cacfe3b1fe41e10524411e9656cf35b400b9bbc7ec73e68d965960b6f949b0c14a6710b
a978e94c36773adb093cdec23a066490aaf9f18131dd1695238380e66ae5fa74570e6e23005d53b56d6ac86c63098ace7152bf74ef2b9861a11a60cf231b9b01
*RXXX VSS 22x 0.1
*XD4         22x 22 IDEAL_DIODE_0
*+ PARAMS: RS=1 EMCO=0.1 BRKV=100 IBRKV=10M
*XD3         22 VDD IDEAL_DIODE_0
*+ PARAMS: RS=1 EMCO=0.01 BRKV=300 IBRKV=1M
*XD2         VSS 23 IDEAL_DIODE_0
*+ PARAMS: RS=1 EMCO=0.01 BRKV=300 IBRKV=1M
*XD1         23 VDD IDEAL_DIODE_0
*+ PARAMS: RS=1 EMCO=0.01 BRKV=300 IBRKV=1M
08a3c8c619c0a6b28d95be0fc5d68720d63d247803c715939ac81cf1f3cd15d052175c524de0aa916d6ac86c63098ace7152bf74ef2b9861a11a60cf231b9b01
e8a3dc121b16270944c2c7ab54d5242b897c1e8c686168bbf2065e9b913e69bc46c907e75ffa80f20df82c91b3ae77534dde9b0ff39e44d3b3472f4dab7faf6d
a978e94c36773adb17a859bac9aefffbed857e222a29377bd4153d62e02be2dc738efccb6d9107455171293ffbc16a97138dd48a6f09c48ab665c0a5a17590be
cc1ce451d38946268d95be0fc5d6872041d552902f60e797ce3e165e70f3d9baa57fe1c8b1f9b897cc2ba80c4befe2f15b2b72ecc5fd1b6eb8aae66640dcb54b
a978e94c36773adb08b2f127de21e0bf5d8f109907a58ba0cd9c70062228a65555b4c28a2958532e656cf35b400b9bbc7ec73e68d965960b6f949b0c14a6710b
3655cbbbf7479f6aa1c84547df29ec1d787f21b50bb541ae95b5d26e80c2a9b17b29e534dafd991d56a85da577288247bdf24348ee7055d6381aa3a19f15d7a6
a978e94c36773adbb89e2b9ce5866030e4ebc76c5ea3f338381e881404d4d96f656cf35b400b9bbc7ec73e68d965960b3eca8fd6b4c214385cd8ee5860898139
dab4cd382cf82e0ca1c84547df29ec1dfe90b4b452d825fd47ca933941cbc9af7b29e534dafd991d56a85da577288247bdf24348ee7055d6381aa3a19f15d7a6
a978e94c36773adbb89e2b9ce5866030e4ebc76c5ea3f338381e881404d4d96f656cf35b400b9bbc7ec73e68d965960b3eca8fd6b4c214385cd8ee5860898139

f74a30e26fe33baae0f086af9e9a76685e68afadf1603c07257ac9ac7cb3ee8674a00720ff12da29b3eba005b8bdd996f9102e232c24640518825d3f446f5829
a978e94c36773adbc46d3fce794954fee9189c80b6ec9a5765ea06988bb730446d6ac86c63098ace7152bf74ef2b9861a68037c687de621ed051d757fae551c9

ac8691a48af45139957673035b26e32bcecb10665bc6681bdda787969fa5bc55d23d5bd0cc305c28ed857e222a29377bd4153d62e02be2dc91f71defc9cef454
a978e94c36773adbaefbc4a97d29b07162ff1a9a451afa42cf3b8e80ec8ce9a1656cf35b400b9bbc7ec73e68d965960b3eca8fd6b4c214385cd8ee5860898139

***XU_PSRR2     VSS GNDF 25 19 GNDF PSRR_0
***+ PARAMS: PSRR=110 FPSRR=40

77cd184e40e039038338acbfef3d3325ce70e73c54f01ad7ed857e222a29377bd4153d62e02be2dc738efccb6d9107455171293ffbc16a972c62160fe280e7ce
a978e94c36773adb67016f32c328a325b8f8625ec5e6b1840d3daf0856e8b0d8b4e0d473a007c3a40df82c91b3ae77534dde9b0ff39e44d3b3472f4dab7faf6d
97c36654915874e48ebc18ba84260cb642d7f5ea1a77a5925f48a3e81fb29de95867ffed63ce1ebb595e094d1d594b56189a554794a05866664c0052273856b2
a978e94c36773adbb11036ffecd7a83c9a6c516585a62282303c73374c8c758281b4a0cf11c436970df82c91b3ae77534dde9b0ff39e44d3b3472f4dab7faf6d
$CDNENCFINISH
.ENDS LM1876_0_0
********************************************************************************************************************************




**************************************
**                                  **
**                                  **
**                                  **
**                                  **
**************************************

.SUBCKT GBW_SLEW_SE_PD_0    VIP  VIM  VO  GNDF  PD
+ PARAMS: AOL = 100  GBW = 1MEG  SRP = 1MEG  SRN = 1MEG IT = 1M
+ VON = 0.5 RSC = 1
$CDNENCSTART
eee8c5c7a2bc4b01f045f303678664e7916da0bae22e8cb0bba041dd67c69ce448ea70148a9ac1670c8926c1ac5057c8ccfcd77bf87ca9dccc6faeb12a62fbf9
02f5b84aeeabda690c967f19b5cff46da772ed59508127de6d6ac86c63098ace7152bf74ef2b9861a68037c687de621e436c8e032b4e0770bff21254c1b2ccc9
7125637e781e961ce2eda4cab6622595ce2ce01b738f664fea73aa25c3b0388c440854eeb5c2a535c091165cb557f15f6d6ac86c63098ace5fc860efe14d10b9
7125637e781e961c0bf60db974211b7fa285edf972eed06205353449384fa69080101d80e2914a7bca840e705c14d976595e094d1d594b56da84d50ba7d01b39
fc8c4fb92a71ec0c6da40d018f354644ce2ce01b738f664fed4a371d213131e90b90723e673dae00c2356fa0b0fe3ea90df82c91b3ae7753bb58637c919a26bd
093e2f83bec06a4d0cf5c1302cf7e330a66e4862bc5b8368ed7ac39c8ccca7dfed857e222a29377bd4153d62e02be2dc738efccb6d9107457795446f3e0ccc78
78caa60348a24a0d5b7f39f92dc1479d65b92efd715d9640407baf7dbe39f7676d6ac86c63098ace7152bf74ef2b9861a68037c687de621ed051d757fae551c9
f389bcd064c34a3933403cd3afb5929c5b5d98f923cd22fb679643e1ce45145656a85da577288247bdf24348ee7055d696b7d19bf60bc0e09f578b0bcd8e81bf
cfa9e9adc7bfbce5dbbb220e6228f657ab5c56f3b2880e61137ce85df607eb1d95f16e3c07e85fd51047bd822f700151d4164863340503600bbeb8fbc4aacaea
71bdfacff86e1eaa0033302266cdb82274a00720ff12da29b3eba005b8bdd996f9102e232c2464059462a67aac781a84e80492d9ae74c7f90540607e39021662
a0e938c77ef859159be9fa050e93dc12a20c0dbfd25d5efced857e222a29377bd4153d62e02be2dc738efccb6d9107455171293ffbc16a972c62160fe280e7ce
aab65e5ef4e9cc829be9fa050e93dc1253762781c9c35de65c889da91505923beadecbf16d4c702bc4f10918320ff01f644ce9d56e1b7fc54c2be892098d5b16
644ce9d56e1b7fc59717458730958630595e094d1d594b56189a554794a058667bff7ea20f2dd130c63bd05644491d6fab50f420ccbfe43991e054ca2809e10e
db81ee51029b5d449be9fa050e93dc1253762781c9c35de6c5313f739c317af7644ce9d56e1b7fc57627dabc5fdd518a9894c1140acaefed35aeeac5c742bb87
$CDNENCFINISH
.ENDS GBW_SLEW_SE_PD_0

**************************************
**                                  **
**                                  **
**                                  **
**                                  **
**************************************
**** 2 INPUT AND **********************************
.SUBCKT AN210_0  A B Y DVDD DVSS PARAMS: RDRV=10K RDLY=10K CDLY=0.1PF DIV=2
$CDNENCSTART
eee8c5c7a2bc4b01f045f303678664e7916da0bae22e8cb0bba041dd67c69ce448ea70148a9ac1670c8926c1ac5057c8ccfcd77bf87ca9dccc6faeb12a62fbf9
79e116ed52a7f63d317f2b4afb6de79c595e094d1d594b56189a554794a058667bff7ea20f2dd130c63bd05644491d6fab50f420ccbfe43991e054ca2809e10e
e1d4d034569ddb59f3cba33b6c977327ed857e222a29377bd4153d62e02be2dc738efccb6d9107455171293ffbc16a97138dd48a6f09c48ab665c0a5a17590be
d66c2b6cf650a2e3317f2b4afb6de79c595e094d1d594b56189a554794a058667bff7ea20f2dd130c63bd05644491d6fab50f420ccbfe43991e054ca2809e10e
764eab282c403481f3cba33b6c977327ed857e222a29377bd4153d62e02be2dc738efccb6d9107455171293ffbc16a97138dd48a6f09c48ab665c0a5a17590be
f5b0f0bb8c25915b28f84a1a2d7ca963ee1fcbe4e88889f8b45fb555070e0f5886c7072f904ece1785758e5130d42cf396cd4d6b9e1c4fc489c2f78cd5fd82be
9ed557ec13469cd31cde7e44b5902cf6a0b9ff23883894aba2827a20f24dfec0dbabfd65cbdea9d4be2108b728a7f10474a00720ff12da29076f797212c9740f
55d7fa3e9be65c06164eddddf70b2d3056a85da577288247bdf24348ee7055d696b7d19bf60bc0e041f49883103604f52789224c5cbdea236f0e8de69353a543
b0fb583fca8a2e0160807eda7bc0b4c3e71f71e187584171230b36913815402d28bab3311d4ff44f9da73ba7731f76c8f1ba6f04cf3944216cb2c6064b26d11f
1dedaa6f0a7bf456d9ab01cc66173203bfcc361f37c6b28b56a85da577288247bdf24348ee7055d696b7d19bf60bc0e041f49883103604f551d354b0e188c18f
0111d96991417d236131abc31f305113ed857e222a29377bd4153d62e02be2dc738efccb6d9107455171293ffbc16a97138dd48a6f09c48ab665c0a5a17590be
5a10a0e5d71a9276317f2b4afb6de79c595e094d1d594b56189a554794a058667bff7ea20f2dd130c63bd05644491d6fab50f420ccbfe43991e054ca2809e10e
$CDNENCFINISH
.ENDS AN210_0


**************************************
**                                  **
**                                  **
**                                  **
**                                  **
**************************************
.SUBCKT IV110_0  A Y DVDD DVSS PARAMS: RDRV=10K RDLY=10K CDLY=0.1PF DIV=2
$CDNENCSTART
eee8c5c7a2bc4b01f045f303678664e7916da0bae22e8cb0bba041dd67c69ce448ea70148a9ac1670c8926c1ac5057c8ccfcd77bf87ca9dccc6faeb12a62fbf9
79e116ed52a7f63d317f2b4afb6de79c595e094d1d594b56189a554794a058667bff7ea20f2dd130c63bd05644491d6fab50f420ccbfe43991e054ca2809e10e
e1d4d034569ddb59f3cba33b6c977327ed857e222a29377bd4153d62e02be2dc738efccb6d9107455171293ffbc16a97138dd48a6f09c48ab665c0a5a17590be
f5b0f0bb8c25915b28f84a1a2d7ca963ee1fcbe4e88889f8b45fb555070e0f587b49d011ec9b7dab12cdd6baf377be8477febaf5877a54eb82d021902886a9e0
*EINV YI 0 VALUE={IF(V(A,DVSS) > (V(DVDD,DVSS)/{DIV}), V(DVSS), V(DVDD))}
55d7fa3e9be65c06164eddddf70b2d3056a85da577288247bdf24348ee7055d696b7d19bf60bc0e041f49883103604f52789224c5cbdea236f0e8de69353a543
b0fb583fca8a2e0160807eda7bc0b4c3e71f71e187584171230b36913815402d28bab3311d4ff44f9da73ba7731f76c8f1ba6f04cf3944216cb2c6064b26d11f
1dedaa6f0a7bf456d9ab01cc66173203bfcc361f37c6b28b56a85da577288247bdf24348ee7055d696b7d19bf60bc0e041f49883103604f551d354b0e188c18f
0111d96991417d236131abc31f305113ed857e222a29377bd4153d62e02be2dc738efccb6d9107455171293ffbc16a97138dd48a6f09c48ab665c0a5a17590be
5a10a0e5d71a9276317f2b4afb6de79c595e094d1d594b56189a554794a058667bff7ea20f2dd130c63bd05644491d6fab50f420ccbfe43991e054ca2809e10e
$CDNENCFINISH
.ENDS IV110_0
*$


**************************************
**                                  **
**                                  **
**                                  **
**                                  **
**************************************

.SUBCKT OUT_CURRENT_CLAMP_PD_0   IN  OUT  PD
+ PARAMS: RON = 1 ROFF = 1G   VON = 0.5 IMAX = 10M  IMIN = -10M
$CDNENCSTART
eee8c5c7a2bc4b01f045f303678664e7916da0bae22e8cb0bba041dd67c69ce448ea70148a9ac1670c8926c1ac5057c8ccfcd77bf87ca9dccc6faeb12a62fbf9
c620a4595db86b5096e69fe9f13077f2c8cb48cdd640bafc9b1f3ec06586468efae652628b941ea05baf58b93ca25f2351eacbd97ad1835d9478fec3f2663096
b0ae481938e517f4fae652628b941ea0f4541add9cbfab8351eacbd97ad1835dba98c008e852f9be1f2c192dba83c2fcbe610ca4cd3c67e535aeeac5c742bb87
$CDNENCFINISH
.ENDS OUT_CURRENT_CLAMP_PD_0


**************************************
**                                  **
**                                  **
**                                  **
**                                  **
**************************************

.SUBCKT PSRR_0   VDD  VSS  VI  VO  GNDF PARAMS: PSRR = 130 
+ FPSRR = 1.6
$CDNENCSTART
eee8c5c7a2bc4b01f045f303678664e7916da0bae22e8cb0bba041dd67c69ce448ea70148a9ac1670c8926c1ac5057c8ccfcd77bf87ca9dccc6faeb12a62fbf9
02f5b84aeeabda690c967f19b5cff46da772ed59508127de6d6ac86c63098ace7152bf74ef2b9861a68037c687de621e436c8e032b4e0770bff21254c1b2ccc9
78caa60348a24a0d8a58133a24d815aeed857e222a29377bd4153d62e02be2dc738efccb6d9107455171293ffbc16a97138dd48a6f09c48ab665c0a5a17590be
f389bcd064c34a3970e7b0a075df940237b1d5ec8421674cd76eb13f2146c2cbbb861eb87ec2adee56a85da577288247bdf24348ee7055d6381aa3a19f15d7a6
5c4e6d12158662c670e7b0a075df9402b0a12d125b79fbbcbbaf0eab63324cfef95f99d726ea4f0c656cf35b400b9bbc7ec73e68d965960b6f949b0c14a6710b
1a703853a82b2138a746ac9a30319025bd3d01eb7e9a29f70b84675c82dbaa580df82c91b3ae77534dde9b0ff39e44d3623c9006d770efa9efe70aa158ce7f98
18593b7f0e4e2b4cfcc8bfab647d53b056a85da577288247bdf24348ee7055d696b7d19bf60bc0e041f49883103604f52789224c5cbdea236f0e8de69353a543
00b4a60f833ace12f5e0c7f83222d0102b8a1343e65caceb656cf35b400b9bbc7ec73e68d965960b3eca8fd6b4c21438c4d7e6a1c25d382f49ea3d087d94ee5c
7ff5fce21e905ef904045bb961bb05d157e2c5aa808513700df82c91b3ae77534dde9b0ff39e44d3623c9006d770efa9ed49d1a5b99f5c65ef1faaf8d8fdf74c
be883ebaf18c4c5655001231c18faf7056a85da577288247bdf24348ee7055d696b7d19bf60bc0e041f49883103604f52789224c5cbdea236f0e8de69353a543
$CDNENCFINISH
.ENDS

**************************************
**                                  **
**                                  **
**                                  **
**                                  **
**************************************



.SUBCKT TF_0    VI  VO  GNDF
+ PARAMS: FZ1 = 10G FZ2 = 10G FZ3 = 10G FZ4 = 10G FZ5 = 10G
+ FP1 = 1 FP2 = 10G FP3 = 10G FP4 = 10G
$CDNENCSTART
eee8c5c7a2bc4b01f045f303678664e7916da0bae22e8cb0bba041dd67c69ce448ea70148a9ac1670c8926c1ac5057c8ccfcd77bf87ca9dccc6faeb12a62fbf9
f389bcd064c34a39961dd0f13582cb1b595e094d1d594b56189a554794a058667bff7ea20f2dd130c63bd05644491d6fab50f420ccbfe43991e054ca2809e10e
78caa60348a24a0d71639c3a0e536789caf8bd8fc8ffb2480df82c91b3ae77534dde9b0ff39e44d3623c9006d770efa9ed49d1a5b99f5c65ef1faaf8d8fdf74c
02f5b84aeeabda690c967f19b5cff46da772ed59508127de6d6ac86c63098ace7152bf74ef2b9861a68037c687de621e436c8e032b4e0770bff21254c1b2ccc9

6023042eeee595827290c7d40443dfb29d0885819d78d9d5caf8bd8fc8ffb2480df82c91b3ae77534dde9b0ff39e44d3623c9006d770efa9efe70aa158ce7f98
021915d12636c32b0f8336230135e2423fbcf8e27a2ab8cbc61347a17fa78b354bdf2a299394b8f3595e094d1d594b56189a554794a05866664c0052273856b2
581bcceab7bff6c61fad6041ef7e8fdf7e05c042d9f64546d707e547ed9ae32456a85da577288247bdf24348ee7055d696b7d19bf60bc0e09f578b0bcd8e81bf

255e73363af2e80b5d572a17b36a71d07cbb4c6b7c591c617d43afcc78bfa9d5656cf35b400b9bbc7ec73e68d965960b3eca8fd6b4c214385cd8ee5860898139
f027a628577671ce0f8336230135e2423fbcf8e27a2ab8cb7abba1f5f5321aac4bdf2a299394b8f3595e094d1d594b56189a554794a05866664c0052273856b2
6e6d0c9d89f642841fad6041ef7e8fdf7e05c042d9f64546896e9fe9207a55ec56a85da577288247bdf24348ee7055d696b7d19bf60bc0e09f578b0bcd8e81bf

7e9e1ea4a9922a32cfb3fa313a4bf7cd31997b57e0f44dcc7d43afcc78bfa9d5656cf35b400b9bbc7ec73e68d965960b3eca8fd6b4c214385cd8ee5860898139
f9ba11636e7711d50f8336230135e2423fbcf8e27a2ab8cbbbb3cbeb5d99d0b74bdf2a299394b8f3595e094d1d594b56189a554794a05866664c0052273856b2
1dbf0192b24e46701fad6041ef7e8fdf7e05c042d9f64546ca01b84e53a3983b56a85da577288247bdf24348ee7055d696b7d19bf60bc0e09f578b0bcd8e81bf

7f921ed55f6769432f6ec95144913396dd5e0115ba4a7a9e7d43afcc78bfa9d5656cf35b400b9bbc7ec73e68d965960b3eca8fd6b4c214385cd8ee5860898139
538712720353275f0f8336230135e2423fbcf8e27a2ab8cbcaa422a4a091781d4bdf2a299394b8f3595e094d1d594b56189a554794a05866664c0052273856b2
69aa6328450ac2d41fad6041ef7e8fdf7e05c042d9f64546a0b45b9635b7cb0156a85da577288247bdf24348ee7055d696b7d19bf60bc0e09f578b0bcd8e81bf

fac4c01fb35a839e9a724041e0b77fd65a7383347aacaccb7d43afcc78bfa9d5656cf35b400b9bbc7ec73e68d965960b3eca8fd6b4c214385cd8ee5860898139
fa9ea9d0a4c91977168e37deb78e544670a894f4122cc1e3f1e66b2df2af636ad847d181a3f26667595e094d1d594b56189a554794a05866664c0052273856b2
f89a8162e20e4f9258432554bf61bcb9e9ec4ed1ef4e5616ec97e258ddc8336e74a00720ff12da29b3eba005b8bdd996f9102e232c24640518825d3f446f5829

b0ba6364c6e51f7fff7a1b74a3e621bc7cbb4c6b7c591c617d43afcc78bfa9d5656cf35b400b9bbc7ec73e68d965960b3eca8fd6b4c214385cd8ee5860898139
46174b0c1b410efa4bc7975e7543767570a894f4122cc1e3bd25902815f064e27d18d4a7d2b3d227595e094d1d594b56189a554794a05866664c0052273856b2
49a4758f42aab59458432554bf61bcb9e9ec4ed1ef4e5616644a0e0f88ac588974a00720ff12da29b3eba005b8bdd996f9102e232c24640518825d3f446f5829

6adfd36c5afd1bd939a06f1d45225bfb31997b57e0f44dcc7d43afcc78bfa9d5656cf35b400b9bbc7ec73e68d965960b3eca8fd6b4c214385cd8ee5860898139
3bd92ee9305ad5901d2bfe7cd75792ad70a894f4122cc1e39da1e466c15e620046f5bb873978243f595e094d1d594b56189a554794a05866664c0052273856b2
3f75a96a24d7b7d458432554bf61bcb9e9ec4ed1ef4e5616bf6719cb46f535f674a00720ff12da29b3eba005b8bdd996f9102e232c24640518825d3f446f5829

af33baa19c21a53797c35816b2d9f58fdd5e0115ba4a7a9e7d43afcc78bfa9d5656cf35b400b9bbc7ec73e68d965960b3eca8fd6b4c214385cd8ee5860898139
d87c89750136c43ad5b1acbc01d8719c70a894f4122cc1e32d6fa5f4e30c090183509db968ef5aca595e094d1d594b56189a554794a05866664c0052273856b2
561a2d7e0d4b427458432554bf61bcb9e9ec4ed1ef4e56161d2c51a8b77cb6db74a00720ff12da29b3eba005b8bdd996f9102e232c24640518825d3f446f5829

f8756003aa698f30582a9a436e47c2729d0885819d78d9d5caf8bd8fc8ffb2480df82c91b3ae77534dde9b0ff39e44d3623c9006d770efa9efe70aa158ce7f98
f173018b4edd57933976deddada76c4b3fbcf8e27a2ab8cba5a0c6cefb4938b4ab0b5300a0dfdd246d6ac86c63098ace7152bf74ef2b9861a11a60cf231b9b01
9dbbd2ee72e2d8ae58432554bf61bcb9e9ec4ed1ef4e5616688b8f973935257574a00720ff12da29b3eba005b8bdd996f9102e232c24640518825d3f446f5829

$CDNENCFINISH
.ENDS TF_0



**************************************
**          **
**                       **
**             **
**             **
**************************************

.SUBCKT IQ_IOFF_0   VDD VSS PD
+ PARAMS: VON = 0.5 IQQ = 1M  IOFF = 1P
$CDNENCSTART
eee8c5c7a2bc4b01f045f303678664e7916da0bae22e8cb0bba041dd67c69ce448ea70148a9ac1670c8926c1ac5057c8ccfcd77bf87ca9dccc6faeb12a62fbf9
41b522f3cd85406c2b39496d8eed451352e659019812eb83fae652628b941ea0f40636520980c24c86da6486da125d95595e094d1d594b56da84d50ba7d01b39
$CDNENCFINISH
.ENDS IQ_IOFF_0


**************************************
**                                  **
**                                  **
**                                  **
**                                  **
**************************************

.SUBCKT IDEAL_DIODE_0  A C
+ PARAMS: EMCO = 0.01 BRKV = 60 IBRKV = 1M)
$CDNENCSTART
eee8c5c7a2bc4b01f045f303678664e7916da0bae22e8cb0bba041dd67c69ce448ea70148a9ac1670c8926c1ac5057c8ccfcd77bf87ca9dccc6faeb12a62fbf9
e35e9be6cb79a989f90d72ccaa38e94a74a00720ff12da29b3eba005b8bdd996f9102e232c2464059462a67aac781a84e80492d9ae74c7f90540607e39021662
af84a12e2467477efe9ba54a6be12aafd822c9ff8d595a5c64f0d87132db27b474a396bf7f2f14fb62bd3c254028f64a515025dc6ac16bfeb8aae66640dcb54b
$CDNENCFINISH
.ENDS IDEAL_DIODE_0


**************************************
**                                  **
**                                  **
**                                  **
**                                  **
**************************************
.SUBCKT GND_FLOAT_0   VDD VSS GNDF
$CDNENCSTART
eee8c5c7a2bc4b01f045f303678664e7916da0bae22e8cb0bba041dd67c69ce448ea70148a9ac1670c8926c1ac5057c8ccfcd77bf87ca9dccc6faeb12a62fbf9
99c661d6bbeeea4801ff3c35c9d11b4b0466a68fce13d1acbf77f3ad0951f77970e77814c9c8971a227cfedce7cd98ca656cf35b400b9bbca6612be9b93751ac
$CDNENCFINISH
.ENDS GND_FLOAT_0


**************************************
**                                  **
**                                  **
**                                  **
**                                  **
**************************************

.SUBCKT AMETER_0   VI  VO VIMON
+ PARAMS: GAIN = 1
$CDNENCSTART
eee8c5c7a2bc4b01f045f303678664e7916da0bae22e8cb0bba041dd67c69ce448ea70148a9ac1670c8926c1ac5057c8ccfcd77bf87ca9dccc6faeb12a62fbf9
5db3dcadba06cef8b21b55b333b388f3d5b4651df4a506d9656cf35b400b9bbc7ec73e68d965960b3eca8fd6b4c21438c4d7e6a1c25d382f49ea3d087d94ee5c
df2c487641b742281e9e3bc1b4437b93dc051b9a91e3562f891519ceaa3c519130003ace64f3b55956a85da577288247bdf24348ee7055d6381aa3a19f15d7a6
$CDNENCFINISH
.ENDS


**************************************
**                                  **
**                                  **
**                                  **
**                                  **
**************************************

.SUBCKT VCLAMP_W_SENSE_0   VDD  VSS  VI  VO VIMON  GNDF
+ PARAMS: VMAXIO = 0.1 VMINIO = 0.1 SLOPE = 20
$CDNENCSTART
eee8c5c7a2bc4b01f045f303678664e7916da0bae22e8cb0bba041dd67c69ce448ea70148a9ac1670c8926c1ac5057c8ccfcd77bf87ca9dccc6faeb12a62fbf9
fda95f7e31081d56e36e25919db501b28492e52ca990713736b8600e40f99260e81ee81c46db2a0baa5a88bace811bfee098bc98036e3dc1f195b78d78b6ac24
16c074eb3db73fe5656cf35b400b9bbc7ec73e68d965960b3eca8fd6b4c21438c4d7e6a1c25d382f122603c079f61e3d419397082b10d32e35d085179d573dae
9ecabdafdefaaedb45c8365f2cd8c0768492e52ca9907137e61b9d09363e259de81ee81c46db2a0baa5a88bace811bfee098bc98036e3dc1ee60355ed38431d4
16c074eb3db73fe5656cf35b400b9bbc7ec73e68d965960b3eca8fd6b4c21438c4d7e6a1c25d382f122603c079f61e3d419397082b10d32e35d085179d573dae
*EPCLIP  VDD_CLP 0 VALUE = {V(VDD,GNDF) -  VMAXIO}
*ENCLIP  VSS_CLP 0 VALUE = {V(VSS,GNDF)  + VMINIO}
dc1e61711e8908f7d6f10819d39dfcd59913139925746ab0a01a192330666f11dd40f2ecbb5ed08cc7efa790c30367447ecff93b452412b6f11480ebd2c9124f
f8e6c34a2e2be5ee74a00720ff12da29b3eba005b8bdd996f9102e232c2464059462a67aac781a84e80492d9ae74c7f963696a06ac4b32d553abbc3e4d2d7fd7
$CDNENCFINISH
.ENDS


**************************************
**                                  **
**                                  **
**                                  **
**                                  **
**************************************

.SUBCKT VCLAMP_0   VDD  VSS  VI  VO  GNDF PARAMS: VMAX = 0.1 VMIN = 0.1
$CDNENCSTART
eee8c5c7a2bc4b01f045f303678664e7916da0bae22e8cb0bba041dd67c69ce448ea70148a9ac1670c8926c1ac5057c8ccfcd77bf87ca9dccc6faeb12a62fbf9
dc1e61711e8908f7d6f10819d39dfcd59913139925746ab0a01a192330666f11dd40f2ecbb5ed08cc7cd75209f6833f58f4865e263c397b3b7f5ef97fd305c74
a935806a7a2be8974721f0809d2e3ef057c6e25380a856916d6ac86c63098ace7152bf74ef2b9861a68037c687de621e436c8e032b4e0770bff21254c1b2ccc9
$CDNENCFINISH
.ENDS


**************************************
**                                  **
**                                  **
**                                  **
**                                  **
**************************************

.SUBCKT CMRR_0   VI  VO  GNDF PARAMS: CMRR = 130 FCMRR = 1.6K
$CDNENCSTART
eee8c5c7a2bc4b01f045f303678664e7916da0bae22e8cb0bba041dd67c69ce448ea70148a9ac1670c8926c1ac5057c8ccfcd77bf87ca9dccc6faeb12a62fbf9
02f5b84aeeabda690c967f19b5cff46da772ed59508127de6d6ac86c63098ace7152bf74ef2b9861a68037c687de621e436c8e032b4e0770bff21254c1b2ccc9
78caa60348a24a0d07d3bf73ccae71cded857e222a29377bd4153d62e02be2dc738efccb6d9107455171293ffbc16a97138dd48a6f09c48ab665c0a5a17590be
f389bcd064c34a3979c19966496fb3e237b1d5ec8421674c1adf4e39b993e47bd9586b060ff8871656a85da577288247bdf24348ee7055d6381aa3a19f15d7a6
5c4e6d12158662c679c19966496fb3e2a6447f9c0658c8c6f967a0f5f45920d5f95f99d726ea4f0c656cf35b400b9bbc7ec73e68d965960b6f949b0c14a6710b
1a703853a82b2138109185796604f007890678e76056bf620b84675c82dbaa580df82c91b3ae77534dde9b0ff39e44d3623c9006d770efa9efe70aa158ce7f98
18593b7f0e4e2b4cfcc773973ef647b156a85da577288247bdf24348ee7055d696b7d19bf60bc0e041f49883103604f52789224c5cbdea236f0e8de69353a543
00b4a60f833ace12e0db3fd7ec7357670b84675c82dbaa580df82c91b3ae77534dde9b0ff39e44d3623c9006d770efa9ed49d1a5b99f5c65ef1faaf8d8fdf74c
41ae67d21015b6acb292997aa7f35eec57e2c5aa808513700df82c91b3ae77534dde9b0ff39e44d3623c9006d770efa9ed49d1a5b99f5c65ef1faaf8d8fdf74c
$CDNENCFINISH
.ENDS

**************************************
**                                  **
**                                  **
**                                  **
**                                  **
**************************************

* BEGIN PROG NSE NANO VOLT/RT-HZ
.SUBCKT VNSE_0  1 2 PARAMS: NLF = 10 FLW = 4  NVR = 4.6
* BEGIN SETUP OF NOISE GEN - NANOVOLT/RT-HZ
* INPUT THREE VARIABLES
* SET UP VNSE 1/F
********************
* NV/RHZ AT 1/F FREQ
* NLF
********************
* FREQ FOR 1/F VAL
* FLW
********************
* SET UP VNSE FB
* NV/RHZ FLATBAND
* NVR
********************
* END USER INPUT
* START CALC VALS
$CDNENCSTART
eee8c5c7a2bc4b01f045f303678664e7916da0bae22e8cb0bba041dd67c69ce448ea70148a9ac1670c8926c1ac5057c8ccfcd77bf87ca9dccc6faeb12a62fbf9
f389bcd064c34a39c2557f43c9fbb3b7e8cc81fb243c1cd1f5f34764f6743cae5a111c414562a998656cf35b400b9bbc7ec73e68d965960b6f949b0c14a6710b
78caa60348a24a0d524334d67adaec7a42eefdd27da0cfbdbe72d1f6fc86ae4c74a00720ff12da29b3eba005b8bdd996f9102e232c24640518825d3f446f5829
d7072740a938f0e77f47e851eb2ca3189a8d4d95223c13da6014ff781c3473097da216422b5ba48138ae8b4377de65d7595e094d1d594b56da84d50ba7d01b39
* END CALC VALS
f47d7088db0042da65bd351ff9bed5626d6ac86c63098ace7152bf74ef2b9861a68037c687de621e436c8e032b4e0770d9abb3c7f2742c96c5da699ea447d474
24512d0b9f7bfcc865bd351ff9bed5626d6ac86c63098ace7152bf74ef2b9861a68037c687de621e436c8e032b4e0770d9abb3c7f2742c96c5da699ea447d474
c243cfd6fc79f8d5516894ef93db06540df82c91b3ae77534dde9b0ff39e44d3623c9006d770efa9ed49d1a5b99f5c657977aa6dbff44dce4fb21e85a8c2b424
47c362974708f4b1516894ef93db06540df82c91b3ae77534dde9b0ff39e44d3623c9006d770efa9ed49d1a5b99f5c657977aa6dbff44dce4fb21e85a8c2b424
d5bd3c16ca7d2691e1855c791d09bd55ed857e222a29377bd4153d62e02be2dc738efccb6d9107455171293ffbc16a97138dd48a6f09c48ab665c0a5a17590be
953573872f945f4ae176bbbad8f6aaa80df82c91b3ae77534dde9b0ff39e44d3623c9006d770efa9ed49d1a5b99f5c657977aa6dbff44dce4fb21e85a8c2b424